Version 4
SHEET 1 3420 1320
WIRE 352 80 64 80
WIRE 352 160 352 80
WIRE 352 160 288 160
WIRE 432 160 352 160
WIRE -80 192 -352 192
WIRE 64 192 64 80
WIRE 64 192 -80 192
WIRE -608 208 -704 208
WIRE -464 208 -608 208
WIRE -352 208 -352 192
WIRE 224 224 224 160
WIRE 224 224 176 224
WIRE 496 224 496 160
WIRE 640 224 496 224
WIRE 720 224 640 224
WIRE 768 224 720 224
WIRE 832 224 768 224
WIRE 912 224 832 224
WIRE 976 224 912 224
WIRE 1136 224 1056 224
WIRE 1136 240 1136 224
WIRE 1200 240 1136 240
WIRE 1264 240 1200 240
WIRE 1424 240 1264 240
WIRE 1760 240 1488 240
WIRE 1856 240 1760 240
WIRE 2208 240 2112 240
WIRE 2256 240 2208 240
WIRE 2336 240 2256 240
WIRE 2480 240 2336 240
WIRE 2672 240 2480 240
WIRE 3040 240 2928 240
WIRE 3088 240 3040 240
WIRE 3264 240 3088 240
WIRE -704 256 -704 208
WIRE 64 272 -48 272
WIRE 224 320 224 224
WIRE 368 320 288 320
WIRE 432 320 368 320
WIRE 496 320 496 224
WIRE 640 320 640 224
WIRE 720 320 720 224
WIRE 832 320 832 224
WIRE 912 320 912 224
WIRE 1136 320 1136 240
WIRE 1200 320 1200 240
WIRE 3264 320 3264 240
WIRE 1760 336 1760 240
WIRE 2208 336 2208 240
WIRE 2336 336 2336 240
WIRE 3088 352 3088 240
WIRE -352 384 -352 288
WIRE -192 384 -352 384
WIRE -48 384 -48 272
WIRE -48 384 -192 384
WIRE -704 400 -704 336
WIRE -608 400 -704 400
WIRE -464 400 -464 288
WIRE -464 400 -608 400
WIRE 2480 400 2480 304
WIRE -192 416 -192 384
WIRE -608 432 -608 400
WIRE 64 432 64 272
WIRE 368 432 368 320
WIRE 368 432 64 432
WIRE 176 512 176 224
WIRE 480 512 176 512
WIRE 640 512 640 384
WIRE 640 512 480 512
WIRE 720 512 720 384
WIRE 720 512 640 512
WIRE 832 512 832 384
WIRE 832 512 720 512
WIRE 912 512 912 384
WIRE 912 512 832 512
WIRE 1136 512 1136 384
WIRE 1136 512 912 512
WIRE 1200 512 1200 384
WIRE 1200 512 1136 512
WIRE 1760 512 1760 400
WIRE 1760 512 1200 512
WIRE 1984 512 1984 336
WIRE 1984 512 1760 512
WIRE 2208 512 2208 400
WIRE 2208 512 1984 512
WIRE 2336 512 2336 400
WIRE 2336 512 2208 512
WIRE 2480 512 2480 480
WIRE 2480 512 2336 512
WIRE 2800 512 2800 336
WIRE 2800 512 2480 512
WIRE 3088 512 3088 416
WIRE 3088 512 2800 512
WIRE 3264 512 3264 400
WIRE 3264 512 3088 512
WIRE 480 544 480 512
FLAG -192 416 0
FLAG 480 544 0
FLAG -80 192 AC_afterstepdown_IN
FLAG 768 224 Rectified_DC
FLAG 1264 240 DC_12V_IN
FLAG 2256 240 DC_5V_OUT
FLAG 3040 240 DC_3.3V_OUT
FLAG -608 432 0
FLAG -608 208 AC_Wall_IN
DATAFLAG 656 224 ""
DATAFLAG 912 512 ""
SYMBOL diode 224 176 R270
WINDOW 0 32 32 VTop 2
WINDOW 3 0 32 VBottom 2
SYMATTR InstName D1
SYMATTR Value 1N4007
SYMBOL diode 432 176 R270
WINDOW 0 32 32 VTop 2
WINDOW 3 0 32 VBottom 2
SYMATTR InstName D2
SYMATTR Value 1N4007
SYMBOL diode 224 336 R270
WINDOW 0 32 32 VTop 2
WINDOW 3 0 32 VBottom 2
SYMATTR InstName D3
SYMATTR Value 1N4007
SYMBOL diode 432 336 R270
WINDOW 0 32 32 VTop 2
WINDOW 3 0 32 VBottom 2
SYMATTR InstName D4
SYMATTR Value 1N4007
SYMBOL polcap 624 320 R0
SYMATTR InstName C1
SYMATTR Value 100µ
SYMATTR SpiceLine V=50
SYMBOL polcap 704 320 R0
SYMATTR InstName C6
SYMATTR Value 100µ
SYMATTR SpiceLine V=50
SYMBOL polcap 816 320 R0
SYMATTR InstName C7
SYMATTR Value 100µ
SYMATTR SpiceLine V=50
SYMBOL polcap 896 320 R0
SYMATTR InstName C8
SYMATTR Value 100µ
SYMATTR SpiceLine V=50
SYMBOL zener 1152 384 R180
WINDOW 0 24 64 Left 2
WINDOW 3 24 0 Left 2
SYMATTR InstName D5
SYMATTR Value BZX84C12L
SYMBOL res 1072 208 R90
WINDOW 0 0 56 VBottom 2
WINDOW 3 32 56 VTop 2
SYMATTR InstName R1
SYMATTR Value 300
SYMBOL polcap 1184 320 R0
SYMATTR InstName C2
SYMATTR Value 50µ
SYMBOL diode 1424 256 R270
WINDOW 0 32 32 VTop 2
WINDOW 3 0 32 VBottom 2
SYMATTR InstName D6
SYMATTR Value M7
SYMBOL PowerProducts\\LT1117-5 1984 240 R0
SYMATTR InstName U1
SYMBOL cap 1744 336 R0
SYMATTR InstName C3
SYMATTR Value 50p
SYMBOL cap 2192 336 R0
SYMATTR InstName C4
SYMATTR Value 50p
SYMBOL polcap 2320 336 R0
SYMATTR InstName C5
SYMATTR Value 10µ
SYMBOL LED 2464 240 R0
SYMATTR InstName D7
SYMATTR Value AOT-2015
SYMBOL res 2464 384 R0
SYMATTR InstName R2
SYMATTR Value 470
SYMBOL PowerProducts\\LT1117-3.3 2800 240 R0
SYMATTR InstName U2
SYMBOL cap 3072 352 R0
SYMATTR InstName C9
SYMATTR Value 50p
SYMBOL res 3248 304 R0
SYMATTR InstName Load_Temp
SYMATTR Value 100
SYMBOL voltage -704 240 R0
WINDOW 123 0 0 Left 0
WINDOW 39 24 124 Left 2
SYMATTR SpiceLine Rser=0.1m
SYMATTR InstName V2
SYMATTR Value SINE(0 170 60)
SYMBOL ind2 -480 192 R0
SYMATTR InstName L1
SYMATTR Value 25
SYMATTR Type ind
SYMBOL ind2 -336 304 R180
WINDOW 0 36 80 Left 2
WINDOW 3 36 40 Left 2
SYMATTR InstName L2
SYMATTR Value 1
SYMATTR Type ind
TEXT -160 24 Left 2 !.tran 0 50m 0
TEXT 2400 104 Left 2 ;Fuse here but not simulated yet connected to U2
TEXT 1264 128 Left 2 ;From the M7 and beyond is Elegoo Power MB V2 board
